/*--------------------------------*- C++ -*----------------------------------*| =========                 |                                                 |
| \      /  F ield         | OpenFOAM: The Open Source CFD Toolbox           |
|  \    /   O peration     | Version:  v2412                                 |
|   \  /    A nd           | Website:  www.openfoam.com                      |
|    \/     M anipulation  |                                                 |
\*---------------------------------------------------------------------------*/
FoamFile
{
    version     2.0;
    format      ascii;
    class       dictionary;
    object      thermophysicalProperties;
}
// * * * * * * * * * * * * * * * * * * * * * * * * * * * * * * * * * * * * * //

thermoType
{
    type            hePsiThermo;
    mixture         pureMixture;
    transport       sutherland;
    thermo          janaf;
    equationOfState perfectGas;
    specie          specie;
    energy          sensibleInternalEnergy;
}

mixture
{
    specie
    {
        nMoles          1;
        molWeight       23.31;
    }
    thermodynamics
    {
        Tlow            200;
        Thigh           6000;
        Tcommon         1000;
        highCpCoeffs    ( 3.1799084386227343 0.0019575039430340144 -5.870730872417439e-07 8.387492689099504e-11 -4.4802533612925434e-15  -3262.02117954851 14.04028077344342 );
        lowCpCoeffs     ( 3.569361395373792 0.0009322558996239775 -2.8265645786620714e-08 5.401176116882227e-10 -3.83735298207962e-13  -3338.2270805434932 12.098893972284593 );
    }
    transport
    {
        As              1.67212e-06;
        Ts              170.672;
    }
}


// ************************************************************************* //