/*--------------------------------*- C++ -*----------------------------------*\
| =========                 |                                                 |
| \\      /  F ield         | OpenFOAM: The Open Source CFD Toolbox           |
|  \\    /   O peration     | Version:  v2412                                 |
|   \\  /    A nd           | Website:  www.openfoam.com                      |
|    \\/     M anipulation  |                                                 |
\*---------------------------------------------------------------------------*/
FoamFile
{
    version     2.0;
    format      ascii;
    class       dictionary;
    object      thermophysicalProperties;
}
// * * * * * * * * * * * * * * * * * * * * * * * * * * * * * * * * * * * * * //

thermoType
{
    type            hePsiThermo;
    mixture         pureMixture;
    transport       sutherland;
    thermo          janaf;
    equationOfState perfectGas;
    specie          specie;
    energy          sensibleInternalEnergy;
}

mixture
{
    specie
    {
        nMoles          1;
        molWeight       23.19;
    }
    thermodynamics
    {
        Tlow            200;
        Thigh           6000;
        Tcommon         1000;
        highCpCoeffs    ( 3.1852810638824067 0.002324009075119116 -6.641177571657482e-07 9.055525916002639e-11 -4.620877008890012e-15  -5284.830680957975 13.921138234844037 );
        lowCpCoeffs     ( 3.7744173993213086 0.00040391889009322847 1.927087340176716e-06 -1.6654515283291842e-09 4.911346557692641e-13  -5394.796640755457 11.036315444087982 );
    }
    transport
    {
        As              1.67212e-06;
        Ts              170.672;
    }
}


// ************************************************************************* //