/*--------------------------------*- C++ -*----------------------------------*\
| =========                 |                                                 |
| \\      /  F ield         | OpenFOAM: The Open Source CFD Toolbox           |
|  \\    /   O peration     | Version:  v2412                                 |
|   \\  /    A nd           | Website:  www.openfoam.com                      |
|    \\/     M anipulation  |                                                 |
\*---------------------------------------------------------------------------*/
FoamFile
{
    version     2.0;
    format      ascii;
    class       dictionary;
    object      thermophysicalProperties;
}
// * * * * * * * * * * * * * * * * * * * * * * * * * * * * * * * * * * * * * //

thermoType
{
    type            hePsiThermo;
    mixture         pureMixture;
    transport       sutherland;
    thermo          janaf;
    equationOfState perfectGas;
    specie          specie;
    energy          sensibleInternalEnergy;
}

mixture
{
    specie
    {
        nMoles          1;
        molWeight       23.12;
    }
    thermodynamics
    {
        Tlow            200;
        Thigh           6000;
        Tcommon         1000;
        highCpCoeffs    ( 3.153679268028816 0.0019763241831707496 -5.916877290520264e-07 8.434718524095251e-11 -4.496074786122799e-15  -3266.33247590209 13.083693687533057 );
        lowCpCoeffs     ( 3.55086724812778 0.00099728678295014 -2.4580914386707345e-07 8.07048583852244e-10 -4.912266437074561e-13  -3345.493109561931 11.091780409791973 );
    }
    transport
    {
        As              1.67212e-06;
        Ts              170.672;
    }
}


// ************************************************************************* //